lig
 OpenBabel05102310323D

  7  6  0  0  0  0  0  0  0  0999 V2000
    0.9122   -0.8155    0.0091 C   0  0  0  0  0  0  0  0  0  0  0  0
   -0.2358    0.0317   -0.3010 C   0  0  0  0  0  0  0  0  0  0  0  0
    0.7348   -1.9845    0.4146 O   0  0  0  0  0  0  0  0  0  0  0  0
    2.1651   -0.3363   -0.1423 O   0  5  0  0  0  0  0  0  0  0  0  0
   -0.1825    0.4096   -1.6178 F   0  0  0  0  0  0  0  0  0  0  0  0
   -0.2092    1.1470    0.4960 F   0  0  0  0  0  0  0  0  0  0  0  0
   -1.3936   -0.6660   -0.0722 F   0  0  0  0  0  0  0  0  0  0  0  0
  1  4  1  0  0  0  0
  1  3  2  0  0  0  0
  2  1  1  0  0  0  0
  2  5  1  0  0  0  0
  2  6  1  0  0  0  0
  2  7  1  0  0  0  0
M  CHG  1   4  -1
M  END
